bdf
bin
cef
cff
dfont
eot
fnt
gai
gsf
hqx
ik
mf
otb
otf
pcf
pdb
pf3
pfa
pfb
pmf
pt3
sfd
svg
t42
ttc
ttf
woff